data_image0
_chemical_formula_structural       GaAl2GaAs
_chemical_formula_sum              "Ga2 Al2 As1"
_cell_length_a       5.628
_cell_length_b       5.628
_cell_length_c       5.628
_cell_angle_alpha    90
_cell_angle_beta     90
_cell_angle_gamma    90

_space_group_name_H-M_alt    "P 1"
_space_group_IT_number       1

loop_
  _space_group_symop_operation_xyz
  'x, y, z'

loop_
  _atom_site_type_symbol
  _atom_site_label
  _atom_site_symmetry_multiplicity
  _atom_site_fract_x
  _atom_site_fract_y
  _atom_site_fract_z
  _atom_site_occupancy
  Ga  Ga1       1.0  0.25000  0.25000  0.25000  1.0000
  Al  Al1       1.0  0.25000  0.75000  0.75000  1.0000
  Al  Al2       1.0  0.75000  0.25000  0.75000  1.0000
  Ga  Ga2       1.0  0.75000  0.75000  0.25000  1.0000
  As  As1       1.0  0.50000  0.50000  0.50000  1.0000
